# generated using pymatgen
data_CrAgS2
_symmetry_space_group_name_H-M   'P 1'
_cell_length_a   3.42616141
_cell_length_b   3.42616141
_cell_length_c   21.58970143
_cell_angle_alpha   90.00000000
_cell_angle_beta   90.00000000
_cell_angle_gamma   120.00000000
_symmetry_Int_Tables_number   1
_chemical_formula_structural   CrAgS2
_chemical_formula_sum   'Cr3 Ag3 S6'
_cell_volume   219.47896647
_cell_formula_units_Z   3
loop_
 _symmetry_equiv_pos_site_id
 _symmetry_equiv_pos_as_xyz
  1  'x, y, z'
loop_
 _atom_site_type_symbol
 _atom_site_label
 _atom_site_symmetry_multiplicity
 _atom_site_fract_x
 _atom_site_fract_y
 _atom_site_fract_z
 _atom_site_occupancy
  Cr  Cr0  1  0.66666667  0.33333333  0.19054333  1.0
  Cr  Cr1  1  0.33333333  0.66666667  0.52387667  1.0
  Cr  Cr2  1  0.00000000  0.00000000  0.85721000  1.0
  Ag  Ag3  1  0.00000000  0.00000000  0.01401800  1.0
  Ag  Ag4  1  0.66666667  0.33333333  0.34735133  1.0
  Ag  Ag5  1  0.33333333  0.66666667  0.68068467  1.0
  S  S6  1  0.00000000  0.00000000  0.12802900  1.0
  S  S7  1  0.00000000  0.00000000  0.26074200  1.0
  S  S8  1  0.66666667  0.33333333  0.46136233  1.0
  S  S9  1  0.66666667  0.33333333  0.59407533  1.0
  S  S10  1  0.33333333  0.66666667  0.79469567  1.0
  S  S11  1  0.33333333  0.66666667  0.92740867  1.0
